Circuit: * C:\Users\jcasa\Documents\projects\UFEPR\ltspice\voltage divider.asc


Date: Tue Oct 06 10:32:58 2015
Total elapsed time: 0.046 seconds.

tnom = 27
temp = 27
method = trap
totiter = 0
traniter = 0
tranpoints = 0
accept = 0
rejected = 0
matrix size = 3
fillins = 0
solver = Normal

